  38
        -52.38032098
 C         -2.0786698084        1.1779165199        0.1490776336
 N         -1.4566811425        0.0003399125       -0.0041270792
 C         -2.0770672261       -1.1786641912       -0.1528510379
 C         -3.4633396540       -1.1946997811       -0.1488257593
 C         -4.1570787166       -0.0027087972        0.0054500049
 C         -3.4649841700        1.1908308761        0.1548805494
 H         -3.9909440827        2.1239154011        0.2756320290
 H         -5.2360067882       -0.0039579620        0.0093611283
 H         -3.9880607168       -2.1289636398       -0.2657722822
 C         -1.2394344915       -2.4050198107       -0.3177144584
 C          0.2413396264       -2.1412066949       -0.1930451741
 C          0.9405639501       -1.5670334387       -1.2518638157
 C          2.3020662172       -1.3424721158       -1.1508655717
 C          2.9750999434       -1.6808209954        0.0111657367
 C          2.2832452423       -2.2362016677        1.0739192235
 C          0.9212145850       -2.4632174926        0.9743258121
 H          0.3886917819       -2.9113337275        1.8003340600
 H          2.8050549089       -2.5057032693        1.9787273313
 H          4.0391051913       -1.5214972451        0.0840336035
 H          2.8371190821       -0.9150965158       -1.9840693319
 H          0.4220480067       -1.3225076018       -2.1687283942
 H         -1.4575977161       -2.8367361434       -1.2999570243
 H         -1.5546607397       -3.1445877095        0.4231126472
 H         -0.4265655569        0.0014340119       -0.0073646561
 C         -1.2426312808        2.4062577935        0.3070534511
 C          0.2386549850        2.1425425172        0.1885921997
 C          0.9224185831        2.4586396157       -0.9781505477
 C          2.2847941079        2.2312305248       -1.0720065982
 C          2.9730365678        1.6811620480       -0.0041575613
 C          2.2961486093        1.3489118427        1.1574153289
 C          0.9343873975        1.5741474168        1.2527939439
 H          0.4126798443        1.3343016832        2.1690489953
 H          2.8284472818        0.9257020299        1.9945036426
 H          4.0372240957        1.5211594900       -0.0727430766
 H          2.8096214983        2.4961318856       -1.9764301557
 H          0.3926459873        2.9024605510       -1.8082517093
 H         -1.4642064553        2.8459406044        1.2849139481
 H         -1.5562180686        3.1394506486       -0.4408856090
  38
        -52.38011672
 C          2.0769168358        1.1857724555       -0.0678894894
 N          1.4556311422        0.0008000965        0.0158611236
 C          2.0750952760       -1.1862820005        0.0833111982
 C          3.4611074583       -1.2028139115        0.0668599260
 C          4.1545261403       -0.0034843271       -0.0183060197
 C          3.4630081169        1.1979668843       -0.0863223500
 H          3.9892941859        2.1362399460       -0.1537076213
 H          5.2334011909       -0.0052301820       -0.0322225368
 H          3.9860268166       -2.1427461024        0.1203075170
 C          1.2299327752       -2.4145176195        0.1783121969
 C         -0.2458810678       -2.1251175953        0.0457173575
 C         -0.8094748391       -1.9463567197       -1.2140682617
 C         -2.1632456712       -1.6926820218       -1.3440556611
 C         -2.9642311301       -1.6098986903       -0.2174102357
 C         -2.4075840253       -1.7702344586        1.0398745020
 C         -1.0529615560       -2.0226086079        1.1723819664
 H         -0.6252593469       -2.1620563953        2.1546127060
 H         -3.0289847206       -1.7111637832        1.9193968060
 H         -4.0226623866       -1.4319369864       -0.3207442781
 H         -2.5936836791       -1.5732807230       -2.3257769428
 H         -0.1892277045       -2.0287914089       -2.0953140060
 H          1.4322005446       -2.8992800574        1.1381023750
 H          1.5475822429       -3.1164105315       -0.5979782588
 H          0.4270688228        0.0026525998        0.0272275691
 C          1.2340413604        2.4172164594       -0.1406423121
 C         -0.2433537801        2.1271646566       -0.0295849361
 C         -1.0315662715        2.0199622131       -1.1692645669
 C         -2.3877919851        1.7663656680       -1.0585055114
 C         -2.9651780848        1.6096288199        0.1899519216
 C         -2.1832133698        1.6970578485        1.3294342580
 C         -0.8275785180        1.9517387890        1.2211579418
 H         -0.2224635605        2.0380209080        2.1125068572
 H         -2.6298195976        1.5805918706        2.3042661253
 H         -4.0250056816        1.4309053310        0.2762151264
 H         -2.9944272405        1.7035552062       -1.9480149765
 H         -0.5874903067        2.1565766237       -2.1445921131
 H          1.4469978535        2.9267272456       -1.0849678861
 H          1.5448750968        3.0978801615        0.6572560501
  38
        -52.37452375
 C         -0.7901074904        0.9344037600       -0.8539932600
 N          0.0740692198        0.3783900805        0.0127586501
 C          0.8517423398        1.0674608710        0.8679397397
 C          0.7673078896        2.4494320310        0.8590597091
 C         -0.1117488506        3.0744267405       -0.0154849311
 C         -0.8952321506        2.3168738000       -0.8732727206
 H         -1.5792294708        2.7910896295       -1.5575709407
 H         -0.1840482808        4.1509271305       -0.0284536615
 H          1.3805219996        3.0278754014        1.5303105887
 C          1.8021770701        0.2842754716        1.7047192799
 C          2.8401552001       -0.3306102187        0.7801155100
 C          3.9064116399        0.4379215613        0.3334170695
 C          4.8437067398       -0.1057803689       -0.5273408104
 C          4.7161717800       -1.4170566491       -0.9547720298
 C          3.6516792402       -2.1856367791       -0.5157495893
 C          2.7121505202       -1.6426213289        0.3448080106
 H          1.8991350604       -2.2600677289        0.7039415410
 H          3.5540994403       -3.2111077193       -0.8368730588
 H          5.4487282699       -1.8413355593       -1.6229689097
 H          5.6752989097        0.4947101511       -0.8612855208
 H          4.0110386497        1.4588303315        0.6698478590
 H          1.2727890703       -0.5070058283        2.2398779303
 H          2.2848295201        0.9340810520        2.4333255295
 H          0.1566690200       -0.6376907395        0.0192689605
 C         -1.6404078904        0.0218504395       -1.6637760595
 C         -2.7673165202       -0.4563538803       -0.7587970891
 C         -2.6746812599       -1.6752659600       -0.1018107286
 C         -3.6984056997       -2.0970832098        0.7297714518
 C         -4.8125414498       -1.2975042599        0.9196217916
 C         -4.9048600901       -0.0773197402        0.2710215711
 C         -3.8835120303        0.3448005496       -0.5618164493
 H         -3.9626405105        1.2934345694       -1.0716002297
 H         -5.7740176502        0.5462806997        0.4100414409
 H         -5.6098391396       -1.6273502897        1.5666886119
 H         -3.6264555994       -3.0533083496        1.2243301122
 H         -1.8190847798       -2.3176481199       -0.2608763084
 H         -1.0635974803       -0.8339443206       -2.0183741492
 H         -2.0530578006        0.5498061990       -2.5222197696
  38
        -52.37433202
 C          0.8796317504        1.0194961689       -0.8783424703
 N          0.1214837801        0.2919767292       -0.0362904103
 C         -0.7791798996        0.8049486595        0.8192395798
 C         -0.9444056891        2.1821875896        0.8429501999
 C         -0.1835386488        2.9774258393        0.0002481799
 C          0.7338109609        2.3956798090       -0.8655704202
 H          1.3296366611        3.0037844988       -1.5261627102
 H         -0.3026482184        4.0496621794        0.0172667899
 H         -1.6594017788        2.6217240899        1.5184662799
 C         -1.6101983200       -0.1406159302        1.6100085798
 C         -2.8051244902       -0.5035496996        0.7381015399
 C         -3.9476708398        0.2836560708        0.7616500700
 C         -5.0289026500       -0.0349501387       -0.0413157099
 C         -4.9707789305       -1.1351038987       -0.8802862400
 C         -3.8309408508       -1.9204793892       -0.9097606001
 C         -2.7482269106       -1.6024217596       -0.1077821301
 H         -1.8707452909       -2.2344126500       -0.1240594202
 H         -3.7842888712       -2.7847215192       -1.5539604001
 H         -5.8138038506       -1.3834889883       -1.5054060099
 H         -5.9176402198        0.5755257716       -0.0083454699
 H         -4.0018329594        1.1372664608        1.4206383900
 H         -1.9554285297        0.3319173300        2.5283813099
 H         -1.0474323803       -1.0404236804        1.8627777098
 H          0.2558622597       -0.7184092508       -0.0426997703
 C          1.8750286500        0.2824107686       -1.7048724604
 C          2.9227449598       -0.2982187919       -0.7693538005
 C          3.9375360302        0.5147803177       -0.2829710105
 C          4.8834211700        0.0018935473        0.5871329094
 C          4.8160005095       -1.3234362427        0.9839780294
 C          3.8028528192       -2.1364488323        0.5054879494
 C          2.8544126493       -1.6241985419       -0.3642030005
 H          2.0823459190       -2.2749235216       -0.7534895405
 H          3.7523412488       -3.1724127023        0.8028396694
 H          5.5556407094       -1.7236586430        1.6591770893
 H          5.6749539403        0.6373723069        0.9521924394
 H          3.9953866606        1.5468736277       -0.5957885505
 H          2.3421274402        0.9575905784       -2.4205062104
 H          1.3870769796       -0.5248712212       -2.2553807104
  38
        -52.37414565
 C          0.8708216999       -0.8835349912       -0.8782720103
 N          0.0824316301       -0.1886527907       -0.0364532106
 C         -0.8021024299       -0.7391943802        0.8134624397
 C         -0.9157870802       -2.1213011101        0.8308984804
 C         -0.1223902704       -2.8840554607       -0.0123134293
 C          0.7757267897       -2.2647808812       -0.8714031496
 H          1.3957388896       -2.8472092616       -1.5327781494
 H         -0.2024304005       -3.9599623906       -0.0011026188
 H         -1.6175478402       -2.5900190697        1.5006176806
 C         -1.6717675997        0.1706525204        1.6047336094
 C         -2.8835297197        0.4820443102        0.7361230093
 C         -3.9989058699       -0.3424729596        0.7764952097
 C         -5.0954228999       -0.0693938298       -0.0225437403
 C         -5.0795994997        1.0221256498       -0.8745063308
 C         -3.9668080196        1.8445665896       -0.9209769713
 C         -2.8690657796        1.5722535398       -0.1226974512
 H         -2.0134659795        2.2330927196       -0.1526499116
 H         -3.9530837595        2.7021992993       -1.5754509817
 H         -5.9345691997        1.2350858997       -1.4964446209
 H         -5.9631340500       -0.7085733296        0.0237593700
 H         -4.0204087300       -1.1895764393        1.4456705101
 H         -1.1477319796        1.0938863704        1.8563030589
 H         -1.9945848398       -0.3157398892        2.5240370496
 H          0.1727482703        0.8260869393       -0.0397738010
 C          1.8508294000       -0.1136091418       -1.6913320307
 C          2.9615342802        0.3433066285       -0.7575108310
 C          2.9593150904        1.6275252987       -0.2313630616
 C          3.9676066605        2.0292293989        0.6287500882
 C          4.9751190104        1.1461702789        0.9771875485
 C          4.9763942801       -0.1385312613        0.4597440991
 C          3.9704494400       -0.5409228415       -0.4010259406
 H          3.9777124498       -1.5411308617       -0.8080826302
 H          5.7629291300       -0.8281739313        0.7230360594
 H          5.7611750405        1.4605195891        1.6453379984
 H          3.9676108507        3.0344373891        1.0206691177
 H          2.1906671805        2.3334471687       -0.5164075819
 H          1.3736822502        0.7557271881       -2.1476298511
 H          2.2620242999       -0.7416875222       -2.4803054704
  38
        -52.37390712
 C          0.6625634513       -0.5219965599       -0.1467491301
 N         -0.6774114487       -0.6025916003       -0.2412357004
 C         -1.3867777385       -1.7345811803       -0.1161225602
 C         -0.7019044783       -2.9149575201        0.1275122104
 C          0.6809932717       -2.8877635898        0.2306759508
 C          1.3683212915       -1.6886475197        0.0938452705
 H          2.4425125214       -1.6498302795        0.1734371908
 H          1.2253024318       -3.7999583496        0.4198913913
 H         -1.2476460282       -3.8384925702        0.2328026206
 C         -2.8730394985       -1.6559744207       -0.2631803307
 C         -3.4013912488       -0.2503539408       -0.1092278313
 C         -3.9519828392        0.1671255996        1.0953500784
 C         -4.4119652495        1.4650518395        1.2399513478
 C         -4.3168434494        2.3596278492        0.1865670375
 C         -3.7659396890        1.9531465088       -1.0171529922
 C         -3.3071848687        0.6543049989       -1.1651243516
 H         -2.9108735883        0.3314780486       -2.1191116514
 H         -3.7013623189        2.6419361785       -1.8451479625
 H         -4.6812790796        3.3682911991        0.2993920070
 H         -4.8506901898        1.7756474498        2.1750809575
 H         -4.0346313193       -0.5282941701        1.9173204586
 H         -3.3377479585       -2.3214871005        0.4669518694
 H         -3.1343456281       -2.0425449811       -1.2545212206
 H         -1.2247854688        0.2487814796       -0.4152106709
 C          1.2822490611        0.8263724301       -0.3146140804
 C          2.7788381110        0.8226450605       -0.1137941100
 C          3.3121516506        0.9468533411        1.1628592801
 C          4.6832682806        0.9346830514        1.3503102805
 C          5.5309278509        0.7962545112        0.2637890608
 C          5.0046408313        0.6702111706       -1.0107508093
 C          3.6332622713        0.6817433503       -1.1991527697
 H          3.2269089916        0.5882468998       -2.1960025198
 H          5.6612133915        0.5671444004       -1.8605562991
 H          6.5996043709        0.7917249915        0.4097546411
 H          5.0891557503        1.0378679119        2.3445492906
 H          2.6534643404        1.0605702512        2.0119977799
 H          0.8161316107        1.5167771703        0.3962083992
 H          1.0489458813        1.1932257197       -1.3197764906
